gem5 Simulator System.  http://gem5.org
gem5 is copyrighted software; use the --copyright option for details.

gem5 compiled Apr 12 2021 02:29:22
gem5 started Apr 12 2021 02:39:04
gem5 executing on ip-172-31-5-144
command line: ./build/ARM/gem5.opt -re -d ca_project2 --stdout-file=bitcount_atomic_stdout.txt --stderr-file=bitcount_atomic_stderr.txt --stats-file=bitcount_atomic_stats.txt configs/example/se.py -c ../mibench/automotive/bitcount/bitcnts --cpu-type=atomic -o 3000

Global frequency set at 1000000000000 ticks per second
**** REAL SIMULATION ****
info: Entering event queue @ 0.  Starting simulation...
info: Increasing stack size by one page.
Bit counter algorithm benchmark

Optimized 1 bit/loop counter          > Time:   0.000 sec.; Bits: 51410
Ratko's mystery algorithm             > Time:   0.000 sec.; Bits: 50681
Recursive bit count by nybbles        > Time:   0.000 sec.; Bits: 46333
Non-recursive bit count by nybbles    > Time:   0.000 sec.; Bits: 48551
Non-recursive bit count by bytes (BW) > Time:   0.000 sec.; Bits: 46818
Non-recursive bit count by bytes (AR) > Time:   0.000 sec.; Bits: 43132
Shift and count bits                  > Time:   0.001 sec.; Bits: 46265

Best  > Non-recursive bit count by bytes (AR)
Worst > Shift and count bits
Exiting @ tick 914993000 because target called exit()
