gem5 Simulator System.  http://gem5.org
gem5 is copyrighted software; use the --copyright option for details.

gem5 compiled Apr 12 2021 02:29:22
gem5 started Apr 12 2021 03:00:33
gem5 executing on ip-172-31-5-144
command line: ./build/ARM/gem5.opt -re -d ca_project2 --stdout-file=sha_timing_stdout.txt --stderr-file=sha_timing_stderr.txt --stats-file=sha_timing_stats.txt configs/example/se.py -c ../mibench/security/sha --cpu-type=timing -o ../tiki_taka/sha_50kbInput.asc

Global frequency set at 1000000000000 ticks per second
