
---------- Begin Simulation Statistics ----------
sim_seconds                                  0.086723                       # Number of seconds simulated
sim_ticks                                 86723027000                       # Number of ticks simulated
final_tick                                86723027000                       # Number of ticks from beginning of simulation (restored from checkpoints and never reset)
sim_freq                                 1000000000000                       # Frequency of simulated ticks
host_inst_rate                                 455121                       # Simulator instruction rate (inst/s)
host_op_rate                                   494095                       # Simulator op (including micro ops) rate (op/s)
host_tick_rate                            24388270710                       # Simulator tick rate (ticks/s)
host_mem_usage                                 636460                       # Number of bytes of host memory used
host_seconds                                     3.56                       # Real time elapsed on the host
sim_insts                                     1618367                       # Number of instructions simulated
sim_ops                                       1756964                       # Number of ops (including micro ops) simulated
system.voltage_domain.voltage                       1                       # Voltage in Volts
system.clk_domain.clock                          1000                       # Clock period in ticks
system.mem_ctrls.bytes_read::cpu.inst         6486792                       # Number of bytes read from this memory
system.mem_ctrls.bytes_read::cpu.data          994283                       # Number of bytes read from this memory
system.mem_ctrls.bytes_read::total            7481075                       # Number of bytes read from this memory
system.mem_ctrls.bytes_inst_read::cpu.inst      6486792                       # Number of instructions bytes read from this memory
system.mem_ctrls.bytes_inst_read::total       6486792                       # Number of instructions bytes read from this memory
system.mem_ctrls.bytes_written::cpu.data       480857                       # Number of bytes written to this memory
system.mem_ctrls.bytes_written::total          480857                       # Number of bytes written to this memory
system.mem_ctrls.num_reads::cpu.inst          1621698                       # Number of read requests responded to by this memory
system.mem_ctrls.num_reads::cpu.data           267680                       # Number of read requests responded to by this memory
system.mem_ctrls.num_reads::total             1889378                       # Number of read requests responded to by this memory
system.mem_ctrls.num_writes::cpu.data          159054                       # Number of write requests responded to by this memory
system.mem_ctrls.num_writes::total             159054                       # Number of write requests responded to by this memory
system.mem_ctrls.bw_read::cpu.inst           74798957                       # Total read bandwidth from this memory (bytes/s)
system.mem_ctrls.bw_read::cpu.data           11465040                       # Total read bandwidth from this memory (bytes/s)
system.mem_ctrls.bw_read::total              86263998                       # Total read bandwidth from this memory (bytes/s)
system.mem_ctrls.bw_inst_read::cpu.inst      74798957                       # Instruction read bandwidth from this memory (bytes/s)
system.mem_ctrls.bw_inst_read::total         74798957                       # Instruction read bandwidth from this memory (bytes/s)
system.mem_ctrls.bw_write::cpu.data           5544744                       # Write bandwidth from this memory (bytes/s)
system.mem_ctrls.bw_write::total              5544744                       # Write bandwidth from this memory (bytes/s)
system.mem_ctrls.bw_total::cpu.inst          74798957                       # Total bandwidth to/from this memory (bytes/s)
system.mem_ctrls.bw_total::cpu.data          17009784                       # Total bandwidth to/from this memory (bytes/s)
system.mem_ctrls.bw_total::total             91808742                       # Total bandwidth to/from this memory (bytes/s)
system.mem_ctrls.readReqs                     1889379                       # Number of read requests accepted
system.mem_ctrls.writeReqs                     159054                       # Number of write requests accepted
system.mem_ctrls.readBursts                   1889379                       # Number of DRAM read bursts, including those serviced by the write queue
system.mem_ctrls.writeBursts                   159054                       # Number of DRAM write bursts, including those merged in the write queue
system.mem_ctrls.bytesReadDRAM              104721536                       # Total number of bytes read from DRAM
system.mem_ctrls.bytesReadWrQ                16198720                       # Total number of bytes read from write queue
system.mem_ctrls.bytesWritten                   32192                       # Total number of bytes written to DRAM
system.mem_ctrls.bytesReadSys                 7481079                       # Total read bytes from the system interface side
system.mem_ctrls.bytesWrittenSys               480857                       # Total written bytes from the system interface side
system.mem_ctrls.servicedByWrQ                 253105                       # Number of DRAM read bursts serviced by the write queue
system.mem_ctrls.mergedWrBursts                158523                       # Number of DRAM write bursts merged with an existing one
system.mem_ctrls.neitherReadNorWriteReqs            0                       # Number of requests that are neither read nor write
system.mem_ctrls.perBankRdBursts::0           1565398                       # Per bank write bursts
system.mem_ctrls.perBankRdBursts::1               126                       # Per bank write bursts
system.mem_ctrls.perBankRdBursts::2                43                       # Per bank write bursts
system.mem_ctrls.perBankRdBursts::3               762                       # Per bank write bursts
system.mem_ctrls.perBankRdBursts::4               998                       # Per bank write bursts
system.mem_ctrls.perBankRdBursts::5              2394                       # Per bank write bursts
system.mem_ctrls.perBankRdBursts::6              1721                       # Per bank write bursts
system.mem_ctrls.perBankRdBursts::7               677                       # Per bank write bursts
system.mem_ctrls.perBankRdBursts::8              1224                       # Per bank write bursts
system.mem_ctrls.perBankRdBursts::9               680                       # Per bank write bursts
system.mem_ctrls.perBankRdBursts::10              118                       # Per bank write bursts
system.mem_ctrls.perBankRdBursts::11            51248                       # Per bank write bursts
system.mem_ctrls.perBankRdBursts::12             2224                       # Per bank write bursts
system.mem_ctrls.perBankRdBursts::13             3915                       # Per bank write bursts
system.mem_ctrls.perBankRdBursts::14              593                       # Per bank write bursts
system.mem_ctrls.perBankRdBursts::15             4153                       # Per bank write bursts
system.mem_ctrls.perBankWrBursts::0                68                       # Per bank write bursts
system.mem_ctrls.perBankWrBursts::1                 0                       # Per bank write bursts
system.mem_ctrls.perBankWrBursts::2                 0                       # Per bank write bursts
system.mem_ctrls.perBankWrBursts::3                 0                       # Per bank write bursts
system.mem_ctrls.perBankWrBursts::4                 0                       # Per bank write bursts
system.mem_ctrls.perBankWrBursts::5                 0                       # Per bank write bursts
system.mem_ctrls.perBankWrBursts::6                 0                       # Per bank write bursts
system.mem_ctrls.perBankWrBursts::7                 0                       # Per bank write bursts
system.mem_ctrls.perBankWrBursts::8                 0                       # Per bank write bursts
system.mem_ctrls.perBankWrBursts::9                 0                       # Per bank write bursts
system.mem_ctrls.perBankWrBursts::10                0                       # Per bank write bursts
system.mem_ctrls.perBankWrBursts::11                0                       # Per bank write bursts
system.mem_ctrls.perBankWrBursts::12              181                       # Per bank write bursts
system.mem_ctrls.perBankWrBursts::13              181                       # Per bank write bursts
system.mem_ctrls.perBankWrBursts::14               22                       # Per bank write bursts
system.mem_ctrls.perBankWrBursts::15               51                       # Per bank write bursts
system.mem_ctrls.numRdRetry                         0                       # Number of times read queue was full causing retry
system.mem_ctrls.numWrRetry                         0                       # Number of times write queue was full causing retry
system.mem_ctrls.totGap                   86722953500                       # Total gap between requests
system.mem_ctrls.readPktSize::0                 51941                       # Read request sizes (log2)
system.mem_ctrls.readPktSize::1                     1                       # Read request sizes (log2)
system.mem_ctrls.readPktSize::2               1817590                       # Read request sizes (log2)
system.mem_ctrls.readPktSize::3                 19847                       # Read request sizes (log2)
system.mem_ctrls.readPktSize::4                     0                       # Read request sizes (log2)
system.mem_ctrls.readPktSize::5                     0                       # Read request sizes (log2)
system.mem_ctrls.readPktSize::6                     0                       # Read request sizes (log2)
system.mem_ctrls.writePktSize::0                51785                       # Write request sizes (log2)
system.mem_ctrls.writePktSize::1                    2                       # Write request sizes (log2)
system.mem_ctrls.writePktSize::2               107267                       # Write request sizes (log2)
system.mem_ctrls.writePktSize::3                    0                       # Write request sizes (log2)
system.mem_ctrls.writePktSize::4                    0                       # Write request sizes (log2)
system.mem_ctrls.writePktSize::5                    0                       # Write request sizes (log2)
system.mem_ctrls.writePktSize::6                    0                       # Write request sizes (log2)
system.mem_ctrls.rdQLenPdf::0                 1635457                       # What read queue length does an incoming req see
system.mem_ctrls.rdQLenPdf::1                     817                       # What read queue length does an incoming req see
system.mem_ctrls.rdQLenPdf::2                       0                       # What read queue length does an incoming req see
system.mem_ctrls.rdQLenPdf::3                       0                       # What read queue length does an incoming req see
system.mem_ctrls.rdQLenPdf::4                       0                       # What read queue length does an incoming req see
system.mem_ctrls.rdQLenPdf::5                       0                       # What read queue length does an incoming req see
system.mem_ctrls.rdQLenPdf::6                       0                       # What read queue length does an incoming req see
system.mem_ctrls.rdQLenPdf::7                       0                       # What read queue length does an incoming req see
system.mem_ctrls.rdQLenPdf::8                       0                       # What read queue length does an incoming req see
system.mem_ctrls.rdQLenPdf::9                       0                       # What read queue length does an incoming req see
system.mem_ctrls.rdQLenPdf::10                      0                       # What read queue length does an incoming req see
system.mem_ctrls.rdQLenPdf::11                      0                       # What read queue length does an incoming req see
system.mem_ctrls.rdQLenPdf::12                      0                       # What read queue length does an incoming req see
system.mem_ctrls.rdQLenPdf::13                      0                       # What read queue length does an incoming req see
system.mem_ctrls.rdQLenPdf::14                      0                       # What read queue length does an incoming req see
system.mem_ctrls.rdQLenPdf::15                      0                       # What read queue length does an incoming req see
system.mem_ctrls.rdQLenPdf::16                      0                       # What read queue length does an incoming req see
system.mem_ctrls.rdQLenPdf::17                      0                       # What read queue length does an incoming req see
system.mem_ctrls.rdQLenPdf::18                      0                       # What read queue length does an incoming req see
system.mem_ctrls.rdQLenPdf::19                      0                       # What read queue length does an incoming req see
system.mem_ctrls.rdQLenPdf::20                      0                       # What read queue length does an incoming req see
system.mem_ctrls.rdQLenPdf::21                      0                       # What read queue length does an incoming req see
system.mem_ctrls.rdQLenPdf::22                      0                       # What read queue length does an incoming req see
system.mem_ctrls.rdQLenPdf::23                      0                       # What read queue length does an incoming req see
system.mem_ctrls.rdQLenPdf::24                      0                       # What read queue length does an incoming req see
system.mem_ctrls.rdQLenPdf::25                      0                       # What read queue length does an incoming req see
system.mem_ctrls.rdQLenPdf::26                      0                       # What read queue length does an incoming req see
system.mem_ctrls.rdQLenPdf::27                      0                       # What read queue length does an incoming req see
system.mem_ctrls.rdQLenPdf::28                      0                       # What read queue length does an incoming req see
system.mem_ctrls.rdQLenPdf::29                      0                       # What read queue length does an incoming req see
system.mem_ctrls.rdQLenPdf::30                      0                       # What read queue length does an incoming req see
system.mem_ctrls.rdQLenPdf::31                      0                       # What read queue length does an incoming req see
system.mem_ctrls.wrQLenPdf::0                       1                       # What write queue length does an incoming req see
system.mem_ctrls.wrQLenPdf::1                       1                       # What write queue length does an incoming req see
system.mem_ctrls.wrQLenPdf::2                       1                       # What write queue length does an incoming req see
system.mem_ctrls.wrQLenPdf::3                       1                       # What write queue length does an incoming req see
system.mem_ctrls.wrQLenPdf::4                       1                       # What write queue length does an incoming req see
system.mem_ctrls.wrQLenPdf::5                       1                       # What write queue length does an incoming req see
system.mem_ctrls.wrQLenPdf::6                       1                       # What write queue length does an incoming req see
system.mem_ctrls.wrQLenPdf::7                       1                       # What write queue length does an incoming req see
system.mem_ctrls.wrQLenPdf::8                       1                       # What write queue length does an incoming req see
system.mem_ctrls.wrQLenPdf::9                       1                       # What write queue length does an incoming req see
system.mem_ctrls.wrQLenPdf::10                      1                       # What write queue length does an incoming req see
system.mem_ctrls.wrQLenPdf::11                      1                       # What write queue length does an incoming req see
system.mem_ctrls.wrQLenPdf::12                      1                       # What write queue length does an incoming req see
system.mem_ctrls.wrQLenPdf::13                      1                       # What write queue length does an incoming req see
system.mem_ctrls.wrQLenPdf::14                      1                       # What write queue length does an incoming req see
system.mem_ctrls.wrQLenPdf::15                      3                       # What write queue length does an incoming req see
system.mem_ctrls.wrQLenPdf::16                      4                       # What write queue length does an incoming req see
system.mem_ctrls.wrQLenPdf::17                     33                       # What write queue length does an incoming req see
system.mem_ctrls.wrQLenPdf::18                     32                       # What write queue length does an incoming req see
system.mem_ctrls.wrQLenPdf::19                     32                       # What write queue length does an incoming req see
system.mem_ctrls.wrQLenPdf::20                     32                       # What write queue length does an incoming req see
system.mem_ctrls.wrQLenPdf::21                     32                       # What write queue length does an incoming req see
system.mem_ctrls.wrQLenPdf::22                     32                       # What write queue length does an incoming req see
system.mem_ctrls.wrQLenPdf::23                     33                       # What write queue length does an incoming req see
system.mem_ctrls.wrQLenPdf::24                     32                       # What write queue length does an incoming req see
system.mem_ctrls.wrQLenPdf::25                     32                       # What write queue length does an incoming req see
system.mem_ctrls.wrQLenPdf::26                     32                       # What write queue length does an incoming req see
system.mem_ctrls.wrQLenPdf::27                     32                       # What write queue length does an incoming req see
system.mem_ctrls.wrQLenPdf::28                     31                       # What write queue length does an incoming req see
system.mem_ctrls.wrQLenPdf::29                     31                       # What write queue length does an incoming req see
system.mem_ctrls.wrQLenPdf::30                     31                       # What write queue length does an incoming req see
system.mem_ctrls.wrQLenPdf::31                     31                       # What write queue length does an incoming req see
system.mem_ctrls.wrQLenPdf::32                     31                       # What write queue length does an incoming req see
system.mem_ctrls.wrQLenPdf::33                      0                       # What write queue length does an incoming req see
system.mem_ctrls.wrQLenPdf::34                      0                       # What write queue length does an incoming req see
system.mem_ctrls.wrQLenPdf::35                      0                       # What write queue length does an incoming req see
system.mem_ctrls.wrQLenPdf::36                      0                       # What write queue length does an incoming req see
system.mem_ctrls.wrQLenPdf::37                      0                       # What write queue length does an incoming req see
system.mem_ctrls.wrQLenPdf::38                      0                       # What write queue length does an incoming req see
system.mem_ctrls.wrQLenPdf::39                      0                       # What write queue length does an incoming req see
system.mem_ctrls.wrQLenPdf::40                      0                       # What write queue length does an incoming req see
system.mem_ctrls.wrQLenPdf::41                      0                       # What write queue length does an incoming req see
system.mem_ctrls.wrQLenPdf::42                      0                       # What write queue length does an incoming req see
system.mem_ctrls.wrQLenPdf::43                      0                       # What write queue length does an incoming req see
system.mem_ctrls.wrQLenPdf::44                      0                       # What write queue length does an incoming req see
system.mem_ctrls.wrQLenPdf::45                      0                       # What write queue length does an incoming req see
system.mem_ctrls.wrQLenPdf::46                      0                       # What write queue length does an incoming req see
system.mem_ctrls.wrQLenPdf::47                      0                       # What write queue length does an incoming req see
system.mem_ctrls.wrQLenPdf::48                      0                       # What write queue length does an incoming req see
system.mem_ctrls.wrQLenPdf::49                      0                       # What write queue length does an incoming req see
system.mem_ctrls.wrQLenPdf::50                      0                       # What write queue length does an incoming req see
system.mem_ctrls.wrQLenPdf::51                      0                       # What write queue length does an incoming req see
system.mem_ctrls.wrQLenPdf::52                      0                       # What write queue length does an incoming req see
system.mem_ctrls.wrQLenPdf::53                      0                       # What write queue length does an incoming req see
system.mem_ctrls.wrQLenPdf::54                      0                       # What write queue length does an incoming req see
system.mem_ctrls.wrQLenPdf::55                      0                       # What write queue length does an incoming req see
system.mem_ctrls.wrQLenPdf::56                      0                       # What write queue length does an incoming req see
system.mem_ctrls.wrQLenPdf::57                      0                       # What write queue length does an incoming req see
system.mem_ctrls.wrQLenPdf::58                      0                       # What write queue length does an incoming req see
system.mem_ctrls.wrQLenPdf::59                      0                       # What write queue length does an incoming req see
system.mem_ctrls.wrQLenPdf::60                      0                       # What write queue length does an incoming req see
system.mem_ctrls.wrQLenPdf::61                      0                       # What write queue length does an incoming req see
system.mem_ctrls.wrQLenPdf::62                      0                       # What write queue length does an incoming req see
system.mem_ctrls.wrQLenPdf::63                      0                       # What write queue length does an incoming req see
system.mem_ctrls.bytesPerActivate::samples       108427                       # Bytes accessed per row activation
system.mem_ctrls.bytesPerActivate::mean    966.087340                       # Bytes accessed per row activation
system.mem_ctrls.bytesPerActivate::gmean   917.883076                       # Bytes accessed per row activation
system.mem_ctrls.bytesPerActivate::stdev   179.981896                       # Bytes accessed per row activation
system.mem_ctrls.bytesPerActivate::0-127         2308      2.13%      2.13% # Bytes accessed per row activation
system.mem_ctrls.bytesPerActivate::128-255          263      0.24%      2.37% # Bytes accessed per row activation
system.mem_ctrls.bytesPerActivate::256-383          965      0.89%      3.26% # Bytes accessed per row activation
system.mem_ctrls.bytesPerActivate::384-511          620      0.57%      3.83% # Bytes accessed per row activation
system.mem_ctrls.bytesPerActivate::512-639         1664      1.53%      5.37% # Bytes accessed per row activation
system.mem_ctrls.bytesPerActivate::640-767         1212      1.12%      6.49% # Bytes accessed per row activation
system.mem_ctrls.bytesPerActivate::768-895         7086      6.54%     13.02% # Bytes accessed per row activation
system.mem_ctrls.bytesPerActivate::896-1023         1942      1.79%     14.81% # Bytes accessed per row activation
system.mem_ctrls.bytesPerActivate::1024-1151        92367     85.19%    100.00% # Bytes accessed per row activation
system.mem_ctrls.bytesPerActivate::total       108427                       # Bytes accessed per row activation
system.mem_ctrls.rdPerTurnAround::samples           31                       # Reads before turning the bus around for writes
system.mem_ctrls.rdPerTurnAround::mean   52775.354839                       # Reads before turning the bus around for writes
system.mem_ctrls.rdPerTurnAround::gmean    499.614126                       # Reads before turning the bus around for writes
system.mem_ctrls.rdPerTurnAround::stdev  276995.102234                       # Reads before turning the bus around for writes
system.mem_ctrls.rdPerTurnAround::0-65535           29     93.55%     93.55% # Reads before turning the bus around for writes
system.mem_ctrls.rdPerTurnAround::65536-131071            1      3.23%     96.77% # Reads before turning the bus around for writes
system.mem_ctrls.rdPerTurnAround::1.50733e+06-1.57286e+06            1      3.23%    100.00% # Reads before turning the bus around for writes
system.mem_ctrls.rdPerTurnAround::total            31                       # Reads before turning the bus around for writes
system.mem_ctrls.wrPerTurnAround::samples           31                       # Writes before turning the bus around for reads
system.mem_ctrls.wrPerTurnAround::mean      16.225806                       # Writes before turning the bus around for reads
system.mem_ctrls.wrPerTurnAround::gmean     16.208600                       # Writes before turning the bus around for reads
system.mem_ctrls.wrPerTurnAround::stdev      0.804557                       # Writes before turning the bus around for reads
system.mem_ctrls.wrPerTurnAround::16               28     90.32%     90.32% # Writes before turning the bus around for reads
system.mem_ctrls.wrPerTurnAround::17                1      3.23%     93.55% # Writes before turning the bus around for reads
system.mem_ctrls.wrPerTurnAround::18                1      3.23%     96.77% # Writes before turning the bus around for reads
system.mem_ctrls.wrPerTurnAround::20                1      3.23%    100.00% # Writes before turning the bus around for reads
system.mem_ctrls.wrPerTurnAround::total            31                       # Writes before turning the bus around for reads
system.mem_ctrls.totQLat                   4312007750                       # Total ticks spent queuing
system.mem_ctrls.totMemAccLat             34992145250                       # Total ticks spent from burst creation until serviced by the DRAM
system.mem_ctrls.totBusLat                 8181370000                       # Total ticks spent in databus transfers
system.mem_ctrls.avgQLat                      2635.26                       # Average queueing delay per DRAM burst
system.mem_ctrls.avgBusLat                    5000.00                       # Average bus latency per DRAM burst
system.mem_ctrls.avgMemAccLat                21385.26                       # Average memory access latency per DRAM burst
system.mem_ctrls.avgRdBW                      1207.54                       # Average DRAM read bandwidth in MiByte/s
system.mem_ctrls.avgWrBW                         0.37                       # Average achieved write bandwidth in MiByte/s
system.mem_ctrls.avgRdBWSys                     86.26                       # Average system read bandwidth in MiByte/s
system.mem_ctrls.avgWrBWSys                      5.54                       # Average system write bandwidth in MiByte/s
system.mem_ctrls.peakBW                      12800.00                       # Theoretical peak bandwidth in MiByte/s
system.mem_ctrls.busUtil                         9.44                       # Data bus utilization in percentage
system.mem_ctrls.busUtilRead                     9.43                       # Data bus utilization in percentage for reads
system.mem_ctrls.busUtilWrite                    0.00                       # Data bus utilization in percentage for writes
system.mem_ctrls.avgRdQLen                       1.00                       # Average read queue length when enqueuing
system.mem_ctrls.avgWrQLen                      31.26                       # Average write queue length when enqueuing
system.mem_ctrls.readRowHits                  1527878                       # Number of row buffer hits during reads
system.mem_ctrls.writeRowHits                     463                       # Number of row buffer hits during writes
system.mem_ctrls.readRowHitRate                 93.38                       # Row buffer hit rate for reads
system.mem_ctrls.writeRowHitRate                87.19                       # Row buffer hit rate for writes
system.mem_ctrls.avgGap                      42336.24                       # Average gap between requests
system.mem_ctrls.pageHitRate                    93.37                       # Row buffer hit rate, read and write combined
system.mem_ctrls_0.actEnergy                771429960                       # Energy for activate commands per rank (pJ)
system.mem_ctrls_0.preEnergy                420919125                       # Energy for precharge commands per rank (pJ)
system.mem_ctrls_0.readEnergy             12261631200                       # Energy for read commands per rank (pJ)
system.mem_ctrls_0.writeEnergy                 440640                       # Energy for write commands per rank (pJ)
system.mem_ctrls_0.refreshEnergy           5663832720                       # Energy for refresh commands per rank (pJ)
system.mem_ctrls_0.actBackEnergy          56054737080                       # Energy for active background per rank (pJ)
system.mem_ctrls_0.preBackEnergy           2858613750                       # Energy for precharge background per rank (pJ)
system.mem_ctrls_0.totalEnergy            78031604475                       # Total energy per rank (pJ)
system.mem_ctrls_0.averagePower            899.855284                       # Core power per rank (mW)
system.mem_ctrls_0.memoryStateTime::IDLE   3214362750                       # Time in different power states
system.mem_ctrls_0.memoryStateTime::REF    2895620000                       # Time in different power states
system.mem_ctrls_0.memoryStateTime::PRE_PDN            0                       # Time in different power states
system.mem_ctrls_0.memoryStateTime::ACT   80605757250                       # Time in different power states
system.mem_ctrls_0.memoryStateTime::ACT_PDN            0                       # Time in different power states
system.mem_ctrls_1.actEnergy                 48240360                       # Energy for activate commands per rank (pJ)
system.mem_ctrls_1.preEnergy                 26321625                       # Energy for precharge commands per rank (pJ)
system.mem_ctrls_1.readEnergy               500221800                       # Energy for read commands per rank (pJ)
system.mem_ctrls_1.writeEnergy                2818800                       # Energy for write commands per rank (pJ)
system.mem_ctrls_1.refreshEnergy           5663832720                       # Energy for refresh commands per rank (pJ)
system.mem_ctrls_1.actBackEnergy           8435688210                       # Energy for active background per rank (pJ)
system.mem_ctrls_1.preBackEnergy          44629709250                       # Energy for precharge background per rank (pJ)
system.mem_ctrls_1.totalEnergy            59306832765                       # Total energy per rank (pJ)
system.mem_ctrls_1.averagePower            683.922459                       # Core power per rank (mW)
system.mem_ctrls_1.memoryStateTime::IDLE  74195879250                       # Time in different power states
system.mem_ctrls_1.memoryStateTime::REF    2895620000                       # Time in different power states
system.mem_ctrls_1.memoryStateTime::PRE_PDN            0                       # Time in different power states
system.mem_ctrls_1.memoryStateTime::ACT    9624672750                       # Time in different power states
system.mem_ctrls_1.memoryStateTime::ACT_PDN            0                       # Time in different power states
system.cpu_voltage_domain.voltage                   1                       # Voltage in Volts
system.cpu_clk_domain.clock                       500                       # Clock period in ticks
system.cpu.dstage2_mmu.stage2_tlb.walker.walks            0                       # Table walker walks requested
system.cpu.dstage2_mmu.stage2_tlb.walker.walkRequestOrigin_Requested::Data            0                       # Table walker requests started/completed, data/inst
system.cpu.dstage2_mmu.stage2_tlb.walker.walkRequestOrigin_Requested::Inst            0                       # Table walker requests started/completed, data/inst
system.cpu.dstage2_mmu.stage2_tlb.walker.walkRequestOrigin_Requested::total            0                       # Table walker requests started/completed, data/inst
system.cpu.dstage2_mmu.stage2_tlb.walker.walkRequestOrigin_Completed::Data            0                       # Table walker requests started/completed, data/inst
system.cpu.dstage2_mmu.stage2_tlb.walker.walkRequestOrigin_Completed::Inst            0                       # Table walker requests started/completed, data/inst
system.cpu.dstage2_mmu.stage2_tlb.walker.walkRequestOrigin_Completed::total            0                       # Table walker requests started/completed, data/inst
system.cpu.dstage2_mmu.stage2_tlb.walker.walkRequestOrigin::total            0                       # Table walker requests started/completed, data/inst
system.cpu.dstage2_mmu.stage2_tlb.inst_hits            0                       # ITB inst hits
system.cpu.dstage2_mmu.stage2_tlb.inst_misses            0                       # ITB inst misses
system.cpu.dstage2_mmu.stage2_tlb.read_hits            0                       # DTB read hits
system.cpu.dstage2_mmu.stage2_tlb.read_misses            0                       # DTB read misses
system.cpu.dstage2_mmu.stage2_tlb.write_hits            0                       # DTB write hits
system.cpu.dstage2_mmu.stage2_tlb.write_misses            0                       # DTB write misses
system.cpu.dstage2_mmu.stage2_tlb.flush_tlb            0                       # Number of times complete TLB was flushed
system.cpu.dstage2_mmu.stage2_tlb.flush_tlb_mva            0                       # Number of times TLB was flushed by MVA
system.cpu.dstage2_mmu.stage2_tlb.flush_tlb_mva_asid            0                       # Number of times TLB was flushed by MVA & ASID
system.cpu.dstage2_mmu.stage2_tlb.flush_tlb_asid            0                       # Number of times TLB was flushed by ASID
system.cpu.dstage2_mmu.stage2_tlb.flush_entries            0                       # Number of entries that have been flushed from TLB
system.cpu.dstage2_mmu.stage2_tlb.align_faults            0                       # Number of TLB faults due to alignment restrictions
system.cpu.dstage2_mmu.stage2_tlb.prefetch_faults            0                       # Number of TLB faults due to prefetch
system.cpu.dstage2_mmu.stage2_tlb.domain_faults            0                       # Number of TLB faults due to domain restrictions
system.cpu.dstage2_mmu.stage2_tlb.perms_faults            0                       # Number of TLB faults due to permissions restrictions
system.cpu.dstage2_mmu.stage2_tlb.read_accesses            0                       # DTB read accesses
system.cpu.dstage2_mmu.stage2_tlb.write_accesses            0                       # DTB write accesses
system.cpu.dstage2_mmu.stage2_tlb.inst_accesses            0                       # ITB inst accesses
system.cpu.dstage2_mmu.stage2_tlb.hits              0                       # DTB hits
system.cpu.dstage2_mmu.stage2_tlb.misses            0                       # DTB misses
system.cpu.dstage2_mmu.stage2_tlb.accesses            0                       # DTB accesses
system.cpu.dtb.walker.walks                         0                       # Table walker walks requested
system.cpu.dtb.walker.walkRequestOrigin_Requested::Data            0                       # Table walker requests started/completed, data/inst
system.cpu.dtb.walker.walkRequestOrigin_Requested::Inst            0                       # Table walker requests started/completed, data/inst
system.cpu.dtb.walker.walkRequestOrigin_Requested::total            0                       # Table walker requests started/completed, data/inst
system.cpu.dtb.walker.walkRequestOrigin_Completed::Data            0                       # Table walker requests started/completed, data/inst
system.cpu.dtb.walker.walkRequestOrigin_Completed::Inst            0                       # Table walker requests started/completed, data/inst
system.cpu.dtb.walker.walkRequestOrigin_Completed::total            0                       # Table walker requests started/completed, data/inst
system.cpu.dtb.walker.walkRequestOrigin::total            0                       # Table walker requests started/completed, data/inst
system.cpu.dtb.inst_hits                            0                       # ITB inst hits
system.cpu.dtb.inst_misses                          0                       # ITB inst misses
system.cpu.dtb.read_hits                            0                       # DTB read hits
system.cpu.dtb.read_misses                          0                       # DTB read misses
system.cpu.dtb.write_hits                           0                       # DTB write hits
system.cpu.dtb.write_misses                         0                       # DTB write misses
system.cpu.dtb.flush_tlb                            0                       # Number of times complete TLB was flushed
system.cpu.dtb.flush_tlb_mva                        0                       # Number of times TLB was flushed by MVA
system.cpu.dtb.flush_tlb_mva_asid                   0                       # Number of times TLB was flushed by MVA & ASID
system.cpu.dtb.flush_tlb_asid                       0                       # Number of times TLB was flushed by ASID
system.cpu.dtb.flush_entries                        0                       # Number of entries that have been flushed from TLB
system.cpu.dtb.align_faults                         0                       # Number of TLB faults due to alignment restrictions
system.cpu.dtb.prefetch_faults                      0                       # Number of TLB faults due to prefetch
system.cpu.dtb.domain_faults                        0                       # Number of TLB faults due to domain restrictions
system.cpu.dtb.perms_faults                         0                       # Number of TLB faults due to permissions restrictions
system.cpu.dtb.read_accesses                        0                       # DTB read accesses
system.cpu.dtb.write_accesses                       0                       # DTB write accesses
system.cpu.dtb.inst_accesses                        0                       # ITB inst accesses
system.cpu.dtb.hits                                 0                       # DTB hits
system.cpu.dtb.misses                               0                       # DTB misses
system.cpu.dtb.accesses                             0                       # DTB accesses
system.cpu.istage2_mmu.stage2_tlb.walker.walks            0                       # Table walker walks requested
system.cpu.istage2_mmu.stage2_tlb.walker.walkRequestOrigin_Requested::Data            0                       # Table walker requests started/completed, data/inst
system.cpu.istage2_mmu.stage2_tlb.walker.walkRequestOrigin_Requested::Inst            0                       # Table walker requests started/completed, data/inst
system.cpu.istage2_mmu.stage2_tlb.walker.walkRequestOrigin_Requested::total            0                       # Table walker requests started/completed, data/inst
system.cpu.istage2_mmu.stage2_tlb.walker.walkRequestOrigin_Completed::Data            0                       # Table walker requests started/completed, data/inst
system.cpu.istage2_mmu.stage2_tlb.walker.walkRequestOrigin_Completed::Inst            0                       # Table walker requests started/completed, data/inst
system.cpu.istage2_mmu.stage2_tlb.walker.walkRequestOrigin_Completed::total            0                       # Table walker requests started/completed, data/inst
system.cpu.istage2_mmu.stage2_tlb.walker.walkRequestOrigin::total            0                       # Table walker requests started/completed, data/inst
system.cpu.istage2_mmu.stage2_tlb.inst_hits            0                       # ITB inst hits
system.cpu.istage2_mmu.stage2_tlb.inst_misses            0                       # ITB inst misses
system.cpu.istage2_mmu.stage2_tlb.read_hits            0                       # DTB read hits
system.cpu.istage2_mmu.stage2_tlb.read_misses            0                       # DTB read misses
system.cpu.istage2_mmu.stage2_tlb.write_hits            0                       # DTB write hits
system.cpu.istage2_mmu.stage2_tlb.write_misses            0                       # DTB write misses
system.cpu.istage2_mmu.stage2_tlb.flush_tlb            0                       # Number of times complete TLB was flushed
system.cpu.istage2_mmu.stage2_tlb.flush_tlb_mva            0                       # Number of times TLB was flushed by MVA
system.cpu.istage2_mmu.stage2_tlb.flush_tlb_mva_asid            0                       # Number of times TLB was flushed by MVA & ASID
system.cpu.istage2_mmu.stage2_tlb.flush_tlb_asid            0                       # Number of times TLB was flushed by ASID
system.cpu.istage2_mmu.stage2_tlb.flush_entries            0                       # Number of entries that have been flushed from TLB
system.cpu.istage2_mmu.stage2_tlb.align_faults            0                       # Number of TLB faults due to alignment restrictions
system.cpu.istage2_mmu.stage2_tlb.prefetch_faults            0                       # Number of TLB faults due to prefetch
system.cpu.istage2_mmu.stage2_tlb.domain_faults            0                       # Number of TLB faults due to domain restrictions
system.cpu.istage2_mmu.stage2_tlb.perms_faults            0                       # Number of TLB faults due to permissions restrictions
system.cpu.istage2_mmu.stage2_tlb.read_accesses            0                       # DTB read accesses
system.cpu.istage2_mmu.stage2_tlb.write_accesses            0                       # DTB write accesses
system.cpu.istage2_mmu.stage2_tlb.inst_accesses            0                       # ITB inst accesses
system.cpu.istage2_mmu.stage2_tlb.hits              0                       # DTB hits
system.cpu.istage2_mmu.stage2_tlb.misses            0                       # DTB misses
system.cpu.istage2_mmu.stage2_tlb.accesses            0                       # DTB accesses
system.cpu.itb.walker.walks                         0                       # Table walker walks requested
system.cpu.itb.walker.walkRequestOrigin_Requested::Data            0                       # Table walker requests started/completed, data/inst
system.cpu.itb.walker.walkRequestOrigin_Requested::Inst            0                       # Table walker requests started/completed, data/inst
system.cpu.itb.walker.walkRequestOrigin_Requested::total            0                       # Table walker requests started/completed, data/inst
system.cpu.itb.walker.walkRequestOrigin_Completed::Data            0                       # Table walker requests started/completed, data/inst
system.cpu.itb.walker.walkRequestOrigin_Completed::Inst            0                       # Table walker requests started/completed, data/inst
system.cpu.itb.walker.walkRequestOrigin_Completed::total            0                       # Table walker requests started/completed, data/inst
system.cpu.itb.walker.walkRequestOrigin::total            0                       # Table walker requests started/completed, data/inst
system.cpu.itb.inst_hits                            0                       # ITB inst hits
system.cpu.itb.inst_misses                          0                       # ITB inst misses
system.cpu.itb.read_hits                            0                       # DTB read hits
system.cpu.itb.read_misses                          0                       # DTB read misses
system.cpu.itb.write_hits                           0                       # DTB write hits
system.cpu.itb.write_misses                         0                       # DTB write misses
system.cpu.itb.flush_tlb                            0                       # Number of times complete TLB was flushed
system.cpu.itb.flush_tlb_mva                        0                       # Number of times TLB was flushed by MVA
system.cpu.itb.flush_tlb_mva_asid                   0                       # Number of times TLB was flushed by MVA & ASID
system.cpu.itb.flush_tlb_asid                       0                       # Number of times TLB was flushed by ASID
system.cpu.itb.flush_entries                        0                       # Number of entries that have been flushed from TLB
system.cpu.itb.align_faults                         0                       # Number of TLB faults due to alignment restrictions
system.cpu.itb.prefetch_faults                      0                       # Number of TLB faults due to prefetch
system.cpu.itb.domain_faults                        0                       # Number of TLB faults due to domain restrictions
system.cpu.itb.perms_faults                         0                       # Number of TLB faults due to permissions restrictions
system.cpu.itb.read_accesses                        0                       # DTB read accesses
system.cpu.itb.write_accesses                       0                       # DTB write accesses
system.cpu.itb.inst_accesses                        0                       # ITB inst accesses
system.cpu.itb.hits                                 0                       # DTB hits
system.cpu.itb.misses                               0                       # DTB misses
system.cpu.itb.accesses                             0                       # DTB accesses
system.cpu.workload.num_syscalls                   23                       # Number of system calls
system.cpu.numCycles                        173446054                       # number of cpu cycles simulated
system.cpu.numWorkItemsStarted                      0                       # number of work items this cpu started
system.cpu.numWorkItemsCompleted                    0                       # number of work items this cpu completed
system.cpu.committedInsts                     1618367                       # Number of instructions committed
system.cpu.committedOps                       1756964                       # Number of ops (including micro ops) committed
system.cpu.num_int_alu_accesses               1666246                       # Number of integer alu accesses
system.cpu.num_fp_alu_accesses                     16                       # Number of float alu accesses
system.cpu.num_func_calls                        5433                       # number of times a function call or return occured
system.cpu.num_conditional_control_insts        97247                       # number of instructions that are conditional controls
system.cpu.num_int_insts                      1666246                       # number of integer instructions
system.cpu.num_fp_insts                            16                       # number of float instructions
system.cpu.num_int_register_reads             2914680                       # number of times the integer registers were read
system.cpu.num_int_register_writes            1421672                       # number of times the integer registers were written
system.cpu.num_fp_register_reads                   16                       # number of times the floating registers were read
system.cpu.num_fp_register_writes                   0                       # number of times the floating registers were written
system.cpu.num_cc_register_reads              6098922                       # number of times the CC registers were read
system.cpu.num_cc_register_writes              290627                       # number of times the CC registers were written
system.cpu.num_mem_refs                        434990                       # number of memory refs
system.cpu.num_load_insts                      271018                       # Number of load instructions
system.cpu.num_store_insts                     163972                       # Number of store instructions
system.cpu.num_idle_cycles                   0.002000                       # Number of idle cycles
system.cpu.num_busy_cycles               173446053.998000                       # Number of busy cycles
system.cpu.not_idle_fraction                 1.000000                       # Percentage of non-idle cycles
system.cpu.idle_fraction                     0.000000                       # Percentage of idle cycles
system.cpu.Branches                            107735                       # Number of branches fetched
system.cpu.op_class::No_OpClass                     0      0.00%      0.00% # Class of executed instruction
system.cpu.op_class::IntAlu                   1331865     75.38%     75.38% # Class of executed instruction
system.cpu.op_class::IntMult                       21      0.00%     75.38% # Class of executed instruction
system.cpu.op_class::IntDiv                         0      0.00%     75.38% # Class of executed instruction
system.cpu.op_class::FloatAdd                       0      0.00%     75.38% # Class of executed instruction
system.cpu.op_class::FloatCmp                       0      0.00%     75.38% # Class of executed instruction
system.cpu.op_class::FloatCvt                       0      0.00%     75.38% # Class of executed instruction
system.cpu.op_class::FloatMult                      0      0.00%     75.38% # Class of executed instruction
system.cpu.op_class::FloatDiv                       0      0.00%     75.38% # Class of executed instruction
system.cpu.op_class::FloatSqrt                      0      0.00%     75.38% # Class of executed instruction
system.cpu.op_class::SimdAdd                        0      0.00%     75.38% # Class of executed instruction
system.cpu.op_class::SimdAddAcc                     0      0.00%     75.38% # Class of executed instruction
system.cpu.op_class::SimdAlu                        0      0.00%     75.38% # Class of executed instruction
system.cpu.op_class::SimdCmp                        0      0.00%     75.38% # Class of executed instruction
system.cpu.op_class::SimdCvt                        0      0.00%     75.38% # Class of executed instruction
system.cpu.op_class::SimdMisc                       0      0.00%     75.38% # Class of executed instruction
system.cpu.op_class::SimdMult                       0      0.00%     75.38% # Class of executed instruction
system.cpu.op_class::SimdMultAcc                    0      0.00%     75.38% # Class of executed instruction
system.cpu.op_class::SimdShift                      0      0.00%     75.38% # Class of executed instruction
system.cpu.op_class::SimdShiftAcc                   0      0.00%     75.38% # Class of executed instruction
system.cpu.op_class::SimdSqrt                       0      0.00%     75.38% # Class of executed instruction
system.cpu.op_class::SimdFloatAdd                   0      0.00%     75.38% # Class of executed instruction
system.cpu.op_class::SimdFloatAlu                   0      0.00%     75.38% # Class of executed instruction
system.cpu.op_class::SimdFloatCmp                   0      0.00%     75.38% # Class of executed instruction
system.cpu.op_class::SimdFloatCvt                   0      0.00%     75.38% # Class of executed instruction
system.cpu.op_class::SimdFloatDiv                   0      0.00%     75.38% # Class of executed instruction
system.cpu.op_class::SimdFloatMisc                  0      0.00%     75.38% # Class of executed instruction
system.cpu.op_class::SimdFloatMult                  0      0.00%     75.38% # Class of executed instruction
system.cpu.op_class::SimdFloatMultAcc               0      0.00%     75.38% # Class of executed instruction
system.cpu.op_class::SimdFloatSqrt                  0      0.00%     75.38% # Class of executed instruction
system.cpu.op_class::MemRead                   271018     15.34%     90.72% # Class of executed instruction
system.cpu.op_class::MemWrite                  163972      9.28%    100.00% # Class of executed instruction
system.cpu.op_class::IprAccess                      0      0.00%    100.00% # Class of executed instruction
system.cpu.op_class::InstPrefetch                   0      0.00%    100.00% # Class of executed instruction
system.cpu.op_class::total                    1766876                       # Class of executed instruction
system.membus.trans_dist::ReadReq             1889328                       # Transaction distribution
system.membus.trans_dist::ReadResp            1889378                       # Transaction distribution
system.membus.trans_dist::WriteReq             159003                       # Transaction distribution
system.membus.trans_dist::WriteResp            159003                       # Transaction distribution
system.membus.trans_dist::LoadLockedReq            51                       # Transaction distribution
system.membus.trans_dist::StoreCondReq             51                       # Transaction distribution
system.membus.trans_dist::StoreCondResp            51                       # Transaction distribution
system.membus.pkt_count_system.cpu.icache_port::system.mem_ctrls.port      3243397                       # Packet count per connected master and slave (bytes)
system.membus.pkt_count_system.cpu.dcache_port::system.mem_ctrls.port       853468                       # Packet count per connected master and slave (bytes)
system.membus.pkt_count::total                4096865                       # Packet count per connected master and slave (bytes)
system.membus.pkt_size_system.cpu.icache_port::system.mem_ctrls.port      6486792                       # Cumulative packet size per connected master and slave (bytes)
system.membus.pkt_size_system.cpu.dcache_port::system.mem_ctrls.port      1475140                       # Cumulative packet size per connected master and slave (bytes)
system.membus.pkt_size::total                 7961932                       # Cumulative packet size per connected master and slave (bytes)
system.membus.snoops                                0                       # Total snoops (count)
system.membus.snoop_fanout::samples           2048433                       # Request fanout histogram
system.membus.snoop_fanout::mean             0.791678                       # Request fanout histogram
system.membus.snoop_fanout::stdev            0.406109                       # Request fanout histogram
system.membus.snoop_fanout::underflows              0      0.00%      0.00% # Request fanout histogram
system.membus.snoop_fanout::0                  426734     20.83%     20.83% # Request fanout histogram
system.membus.snoop_fanout::1                 1621699     79.17%    100.00% # Request fanout histogram
system.membus.snoop_fanout::overflows               0      0.00%    100.00% # Request fanout histogram
system.membus.snoop_fanout::min_value               0                       # Request fanout histogram
system.membus.snoop_fanout::max_value               1                       # Request fanout histogram
system.membus.snoop_fanout::total             2048433                       # Request fanout histogram
system.membus.reqLayer0.occupancy          2258686000                       # Layer occupancy (ticks)
system.membus.reqLayer0.utilization               2.6                       # Layer utilization (%)
system.membus.respLayer1.occupancy         3673717250                       # Layer occupancy (ticks)
system.membus.respLayer1.utilization              4.2                       # Layer utilization (%)
system.membus.respLayer2.occupancy          698884250                       # Layer occupancy (ticks)
system.membus.respLayer2.utilization              0.8                       # Layer utilization (%)

---------- End Simulation Statistics   ----------
