
---------- Begin Simulation Statistics ----------
sim_seconds                                  0.089509                       # Number of seconds simulated
sim_ticks                                 89509295000                       # Number of ticks simulated
final_tick                                89509295000                       # Number of ticks from beginning of simulation (restored from checkpoints and never reset)
sim_freq                                 1000000000000                       # Frequency of simulated ticks
host_inst_rate                                 393337                       # Simulator instruction rate (inst/s)
host_op_rate                                   424760                       # Simulator op (including micro ops) rate (op/s)
host_tick_rate                            24019963707                       # Simulator tick rate (ticks/s)
host_mem_usage                                 637336                       # Number of bytes of host memory used
host_seconds                                     3.73                       # Real time elapsed on the host
sim_insts                                     1465741                       # Number of instructions simulated
sim_ops                                       1582845                       # Number of ops (including micro ops) simulated
system.voltage_domain.voltage                       1                       # Voltage in Volts
system.clk_domain.clock                          1000                       # Clock period in ticks
system.mem_ctrls.bytes_read::cpu.inst         5865284                       # Number of bytes read from this memory
system.mem_ctrls.bytes_read::cpu.data          801905                       # Number of bytes read from this memory
system.mem_ctrls.bytes_read::total            6667189                       # Number of bytes read from this memory
system.mem_ctrls.bytes_inst_read::cpu.inst      5865284                       # Number of instructions bytes read from this memory
system.mem_ctrls.bytes_inst_read::total       5865284                       # Number of instructions bytes read from this memory
system.mem_ctrls.bytes_written::cpu.data       708354                       # Number of bytes written to this memory
system.mem_ctrls.bytes_written::total          708354                       # Number of bytes written to this memory
system.mem_ctrls.num_reads::cpu.inst          1466321                       # Number of read requests responded to by this memory
system.mem_ctrls.num_reads::cpu.data           359066                       # Number of read requests responded to by this memory
system.mem_ctrls.num_reads::total             1825387                       # Number of read requests responded to by this memory
system.mem_ctrls.num_writes::cpu.data          177924                       # Number of write requests responded to by this memory
system.mem_ctrls.num_writes::total             177924                       # Number of write requests responded to by this memory
system.mem_ctrls.bw_read::cpu.inst           65527094                       # Total read bandwidth from this memory (bytes/s)
system.mem_ctrls.bw_read::cpu.data            8958902                       # Total read bandwidth from this memory (bytes/s)
system.mem_ctrls.bw_read::total              74485996                       # Total read bandwidth from this memory (bytes/s)
system.mem_ctrls.bw_inst_read::cpu.inst      65527094                       # Instruction read bandwidth from this memory (bytes/s)
system.mem_ctrls.bw_inst_read::total         65527094                       # Instruction read bandwidth from this memory (bytes/s)
system.mem_ctrls.bw_write::cpu.data           7913748                       # Write bandwidth from this memory (bytes/s)
system.mem_ctrls.bw_write::total              7913748                       # Write bandwidth from this memory (bytes/s)
system.mem_ctrls.bw_total::cpu.inst          65527094                       # Total bandwidth to/from this memory (bytes/s)
system.mem_ctrls.bw_total::cpu.data          16872650                       # Total bandwidth to/from this memory (bytes/s)
system.mem_ctrls.bw_total::total             82399744                       # Total bandwidth to/from this memory (bytes/s)
system.mem_ctrls.readReqs                     1825388                       # Number of read requests accepted
system.mem_ctrls.writeReqs                     177924                       # Number of write requests accepted
system.mem_ctrls.readBursts                   1825388                       # Number of DRAM read bursts, including those serviced by the write queue
system.mem_ctrls.writeBursts                   177924                       # Number of DRAM write bursts, including those merged in the write queue
system.mem_ctrls.bytesReadDRAM              111411264                       # Total number of bytes read from DRAM
system.mem_ctrls.bytesReadWrQ                 5413568                       # Total number of bytes read from write queue
system.mem_ctrls.bytesWritten                   83136                       # Total number of bytes written to DRAM
system.mem_ctrls.bytesReadSys                 6667193                       # Total read bytes from the system interface side
system.mem_ctrls.bytesWrittenSys               708354                       # Total written bytes from the system interface side
system.mem_ctrls.servicedByWrQ                  84587                       # Number of DRAM read bursts serviced by the write queue
system.mem_ctrls.mergedWrBursts                176600                       # Number of DRAM write bursts merged with an existing one
system.mem_ctrls.neitherReadNorWriteReqs            0                       # Number of requests that are neither read nor write
system.mem_ctrls.perBankRdBursts::0             14092                       # Per bank write bursts
system.mem_ctrls.perBankRdBursts::1              2798                       # Per bank write bursts
system.mem_ctrls.perBankRdBursts::2            869816                       # Per bank write bursts
system.mem_ctrls.perBankRdBursts::3             62337                       # Per bank write bursts
system.mem_ctrls.perBankRdBursts::4             72710                       # Per bank write bursts
system.mem_ctrls.perBankRdBursts::5              2303                       # Per bank write bursts
system.mem_ctrls.perBankRdBursts::6            464491                       # Per bank write bursts
system.mem_ctrls.perBankRdBursts::7              1434                       # Per bank write bursts
system.mem_ctrls.perBankRdBursts::8            116586                       # Per bank write bursts
system.mem_ctrls.perBankRdBursts::9            104286                       # Per bank write bursts
system.mem_ctrls.perBankRdBursts::10            20608                       # Per bank write bursts
system.mem_ctrls.perBankRdBursts::11             1861                       # Per bank write bursts
system.mem_ctrls.perBankRdBursts::12             3121                       # Per bank write bursts
system.mem_ctrls.perBankRdBursts::13             1982                       # Per bank write bursts
system.mem_ctrls.perBankRdBursts::14             1185                       # Per bank write bursts
system.mem_ctrls.perBankRdBursts::15             1191                       # Per bank write bursts
system.mem_ctrls.perBankWrBursts::0                 4                       # Per bank write bursts
system.mem_ctrls.perBankWrBursts::1                 2                       # Per bank write bursts
system.mem_ctrls.perBankWrBursts::2                 3                       # Per bank write bursts
system.mem_ctrls.perBankWrBursts::3               164                       # Per bank write bursts
system.mem_ctrls.perBankWrBursts::4                16                       # Per bank write bursts
system.mem_ctrls.perBankWrBursts::5               240                       # Per bank write bursts
system.mem_ctrls.perBankWrBursts::6                51                       # Per bank write bursts
system.mem_ctrls.perBankWrBursts::7                40                       # Per bank write bursts
system.mem_ctrls.perBankWrBursts::8                62                       # Per bank write bursts
system.mem_ctrls.perBankWrBursts::9               107                       # Per bank write bursts
system.mem_ctrls.perBankWrBursts::10              134                       # Per bank write bursts
system.mem_ctrls.perBankWrBursts::11              131                       # Per bank write bursts
system.mem_ctrls.perBankWrBursts::12              132                       # Per bank write bursts
system.mem_ctrls.perBankWrBursts::13              136                       # Per bank write bursts
system.mem_ctrls.perBankWrBursts::14               76                       # Per bank write bursts
system.mem_ctrls.perBankWrBursts::15                1                       # Per bank write bursts
system.mem_ctrls.numRdRetry                         0                       # Number of times read queue was full causing retry
system.mem_ctrls.numWrRetry                         0                       # Number of times write queue was full causing retry
system.mem_ctrls.totGap                   89509221500                       # Total gap between requests
system.mem_ctrls.readPktSize::0                236755                       # Read request sizes (log2)
system.mem_ctrls.readPktSize::1                     1                       # Read request sizes (log2)
system.mem_ctrls.readPktSize::2               1569655                       # Read request sizes (log2)
system.mem_ctrls.readPktSize::3                 18977                       # Read request sizes (log2)
system.mem_ctrls.readPktSize::4                     0                       # Read request sizes (log2)
system.mem_ctrls.readPktSize::5                     0                       # Read request sizes (log2)
system.mem_ctrls.readPktSize::6                     0                       # Read request sizes (log2)
system.mem_ctrls.writePktSize::0                 1112                       # Write request sizes (log2)
system.mem_ctrls.writePktSize::1                    3                       # Write request sizes (log2)
system.mem_ctrls.writePktSize::2               176809                       # Write request sizes (log2)
system.mem_ctrls.writePktSize::3                    0                       # Write request sizes (log2)
system.mem_ctrls.writePktSize::4                    0                       # Write request sizes (log2)
system.mem_ctrls.writePktSize::5                    0                       # Write request sizes (log2)
system.mem_ctrls.writePktSize::6                    0                       # Write request sizes (log2)
system.mem_ctrls.rdQLenPdf::0                 1740684                       # What read queue length does an incoming req see
system.mem_ctrls.rdQLenPdf::1                     117                       # What read queue length does an incoming req see
system.mem_ctrls.rdQLenPdf::2                       0                       # What read queue length does an incoming req see
system.mem_ctrls.rdQLenPdf::3                       0                       # What read queue length does an incoming req see
system.mem_ctrls.rdQLenPdf::4                       0                       # What read queue length does an incoming req see
system.mem_ctrls.rdQLenPdf::5                       0                       # What read queue length does an incoming req see
system.mem_ctrls.rdQLenPdf::6                       0                       # What read queue length does an incoming req see
system.mem_ctrls.rdQLenPdf::7                       0                       # What read queue length does an incoming req see
system.mem_ctrls.rdQLenPdf::8                       0                       # What read queue length does an incoming req see
system.mem_ctrls.rdQLenPdf::9                       0                       # What read queue length does an incoming req see
system.mem_ctrls.rdQLenPdf::10                      0                       # What read queue length does an incoming req see
system.mem_ctrls.rdQLenPdf::11                      0                       # What read queue length does an incoming req see
system.mem_ctrls.rdQLenPdf::12                      0                       # What read queue length does an incoming req see
system.mem_ctrls.rdQLenPdf::13                      0                       # What read queue length does an incoming req see
system.mem_ctrls.rdQLenPdf::14                      0                       # What read queue length does an incoming req see
system.mem_ctrls.rdQLenPdf::15                      0                       # What read queue length does an incoming req see
system.mem_ctrls.rdQLenPdf::16                      0                       # What read queue length does an incoming req see
system.mem_ctrls.rdQLenPdf::17                      0                       # What read queue length does an incoming req see
system.mem_ctrls.rdQLenPdf::18                      0                       # What read queue length does an incoming req see
system.mem_ctrls.rdQLenPdf::19                      0                       # What read queue length does an incoming req see
system.mem_ctrls.rdQLenPdf::20                      0                       # What read queue length does an incoming req see
system.mem_ctrls.rdQLenPdf::21                      0                       # What read queue length does an incoming req see
system.mem_ctrls.rdQLenPdf::22                      0                       # What read queue length does an incoming req see
system.mem_ctrls.rdQLenPdf::23                      0                       # What read queue length does an incoming req see
system.mem_ctrls.rdQLenPdf::24                      0                       # What read queue length does an incoming req see
system.mem_ctrls.rdQLenPdf::25                      0                       # What read queue length does an incoming req see
system.mem_ctrls.rdQLenPdf::26                      0                       # What read queue length does an incoming req see
system.mem_ctrls.rdQLenPdf::27                      0                       # What read queue length does an incoming req see
system.mem_ctrls.rdQLenPdf::28                      0                       # What read queue length does an incoming req see
system.mem_ctrls.rdQLenPdf::29                      0                       # What read queue length does an incoming req see
system.mem_ctrls.rdQLenPdf::30                      0                       # What read queue length does an incoming req see
system.mem_ctrls.rdQLenPdf::31                      0                       # What read queue length does an incoming req see
system.mem_ctrls.wrQLenPdf::0                       1                       # What write queue length does an incoming req see
system.mem_ctrls.wrQLenPdf::1                       1                       # What write queue length does an incoming req see
system.mem_ctrls.wrQLenPdf::2                       1                       # What write queue length does an incoming req see
system.mem_ctrls.wrQLenPdf::3                       1                       # What write queue length does an incoming req see
system.mem_ctrls.wrQLenPdf::4                       1                       # What write queue length does an incoming req see
system.mem_ctrls.wrQLenPdf::5                       1                       # What write queue length does an incoming req see
system.mem_ctrls.wrQLenPdf::6                       1                       # What write queue length does an incoming req see
system.mem_ctrls.wrQLenPdf::7                       1                       # What write queue length does an incoming req see
system.mem_ctrls.wrQLenPdf::8                       1                       # What write queue length does an incoming req see
system.mem_ctrls.wrQLenPdf::9                       1                       # What write queue length does an incoming req see
system.mem_ctrls.wrQLenPdf::10                      1                       # What write queue length does an incoming req see
system.mem_ctrls.wrQLenPdf::11                      1                       # What write queue length does an incoming req see
system.mem_ctrls.wrQLenPdf::12                      1                       # What write queue length does an incoming req see
system.mem_ctrls.wrQLenPdf::13                      1                       # What write queue length does an incoming req see
system.mem_ctrls.wrQLenPdf::14                      1                       # What write queue length does an incoming req see
system.mem_ctrls.wrQLenPdf::15                     17                       # What write queue length does an incoming req see
system.mem_ctrls.wrQLenPdf::16                     19                       # What write queue length does an incoming req see
system.mem_ctrls.wrQLenPdf::17                     80                       # What write queue length does an incoming req see
system.mem_ctrls.wrQLenPdf::18                     80                       # What write queue length does an incoming req see
system.mem_ctrls.wrQLenPdf::19                     80                       # What write queue length does an incoming req see
system.mem_ctrls.wrQLenPdf::20                     80                       # What write queue length does an incoming req see
system.mem_ctrls.wrQLenPdf::21                     80                       # What write queue length does an incoming req see
system.mem_ctrls.wrQLenPdf::22                     80                       # What write queue length does an incoming req see
system.mem_ctrls.wrQLenPdf::23                     81                       # What write queue length does an incoming req see
system.mem_ctrls.wrQLenPdf::24                     80                       # What write queue length does an incoming req see
system.mem_ctrls.wrQLenPdf::25                     79                       # What write queue length does an incoming req see
system.mem_ctrls.wrQLenPdf::26                     79                       # What write queue length does an incoming req see
system.mem_ctrls.wrQLenPdf::27                     79                       # What write queue length does an incoming req see
system.mem_ctrls.wrQLenPdf::28                     79                       # What write queue length does an incoming req see
system.mem_ctrls.wrQLenPdf::29                     79                       # What write queue length does an incoming req see
system.mem_ctrls.wrQLenPdf::30                     79                       # What write queue length does an incoming req see
system.mem_ctrls.wrQLenPdf::31                     79                       # What write queue length does an incoming req see
system.mem_ctrls.wrQLenPdf::32                     79                       # What write queue length does an incoming req see
system.mem_ctrls.wrQLenPdf::33                      0                       # What write queue length does an incoming req see
system.mem_ctrls.wrQLenPdf::34                      0                       # What write queue length does an incoming req see
system.mem_ctrls.wrQLenPdf::35                      0                       # What write queue length does an incoming req see
system.mem_ctrls.wrQLenPdf::36                      0                       # What write queue length does an incoming req see
system.mem_ctrls.wrQLenPdf::37                      0                       # What write queue length does an incoming req see
system.mem_ctrls.wrQLenPdf::38                      0                       # What write queue length does an incoming req see
system.mem_ctrls.wrQLenPdf::39                      0                       # What write queue length does an incoming req see
system.mem_ctrls.wrQLenPdf::40                      0                       # What write queue length does an incoming req see
system.mem_ctrls.wrQLenPdf::41                      0                       # What write queue length does an incoming req see
system.mem_ctrls.wrQLenPdf::42                      0                       # What write queue length does an incoming req see
system.mem_ctrls.wrQLenPdf::43                      0                       # What write queue length does an incoming req see
system.mem_ctrls.wrQLenPdf::44                      0                       # What write queue length does an incoming req see
system.mem_ctrls.wrQLenPdf::45                      0                       # What write queue length does an incoming req see
system.mem_ctrls.wrQLenPdf::46                      0                       # What write queue length does an incoming req see
system.mem_ctrls.wrQLenPdf::47                      0                       # What write queue length does an incoming req see
system.mem_ctrls.wrQLenPdf::48                      0                       # What write queue length does an incoming req see
system.mem_ctrls.wrQLenPdf::49                      0                       # What write queue length does an incoming req see
system.mem_ctrls.wrQLenPdf::50                      0                       # What write queue length does an incoming req see
system.mem_ctrls.wrQLenPdf::51                      0                       # What write queue length does an incoming req see
system.mem_ctrls.wrQLenPdf::52                      0                       # What write queue length does an incoming req see
system.mem_ctrls.wrQLenPdf::53                      0                       # What write queue length does an incoming req see
system.mem_ctrls.wrQLenPdf::54                      0                       # What write queue length does an incoming req see
system.mem_ctrls.wrQLenPdf::55                      0                       # What write queue length does an incoming req see
system.mem_ctrls.wrQLenPdf::56                      0                       # What write queue length does an incoming req see
system.mem_ctrls.wrQLenPdf::57                      0                       # What write queue length does an incoming req see
system.mem_ctrls.wrQLenPdf::58                      0                       # What write queue length does an incoming req see
system.mem_ctrls.wrQLenPdf::59                      0                       # What write queue length does an incoming req see
system.mem_ctrls.wrQLenPdf::60                      0                       # What write queue length does an incoming req see
system.mem_ctrls.wrQLenPdf::61                      0                       # What write queue length does an incoming req see
system.mem_ctrls.wrQLenPdf::62                      0                       # What write queue length does an incoming req see
system.mem_ctrls.wrQLenPdf::63                      0                       # What write queue length does an incoming req see
system.mem_ctrls.bytesPerActivate::samples       138554                       # Bytes accessed per row activation
system.mem_ctrls.bytesPerActivate::mean    804.686577                       # Bytes accessed per row activation
system.mem_ctrls.bytesPerActivate::gmean   624.440565                       # Bytes accessed per row activation
system.mem_ctrls.bytesPerActivate::stdev   367.592282                       # Bytes accessed per row activation
system.mem_ctrls.bytesPerActivate::0-127         8919      6.44%      6.44% # Bytes accessed per row activation
system.mem_ctrls.bytesPerActivate::128-255        17972     12.97%     19.41% # Bytes accessed per row activation
system.mem_ctrls.bytesPerActivate::256-383         3479      2.51%     21.92% # Bytes accessed per row activation
system.mem_ctrls.bytesPerActivate::384-511         1911      1.38%     23.30% # Bytes accessed per row activation
system.mem_ctrls.bytesPerActivate::512-639         2061      1.49%     24.79% # Bytes accessed per row activation
system.mem_ctrls.bytesPerActivate::640-767         2270      1.64%     26.42% # Bytes accessed per row activation
system.mem_ctrls.bytesPerActivate::768-895         1933      1.40%     27.82% # Bytes accessed per row activation
system.mem_ctrls.bytesPerActivate::896-1023         2343      1.69%     29.51% # Bytes accessed per row activation
system.mem_ctrls.bytesPerActivate::1024-1151        97666     70.49%    100.00% # Bytes accessed per row activation
system.mem_ctrls.bytesPerActivate::total       138554                       # Bytes accessed per row activation
system.mem_ctrls.rdPerTurnAround::samples           79                       # Reads before turning the bus around for writes
system.mem_ctrls.rdPerTurnAround::mean   22033.341772                       # Reads before turning the bus around for writes
system.mem_ctrls.rdPerTurnAround::gmean    511.054552                       # Reads before turning the bus around for writes
system.mem_ctrls.rdPerTurnAround::stdev  97505.125711                       # Reads before turning the bus around for writes
system.mem_ctrls.rdPerTurnAround::0-32767           74     93.67%     93.67% # Reads before turning the bus around for writes
system.mem_ctrls.rdPerTurnAround::32768-65535            1      1.27%     94.94% # Reads before turning the bus around for writes
system.mem_ctrls.rdPerTurnAround::163840-196607            1      1.27%     96.20% # Reads before turning the bus around for writes
system.mem_ctrls.rdPerTurnAround::393216-425983            1      1.27%     97.47% # Reads before turning the bus around for writes
system.mem_ctrls.rdPerTurnAround::524288-557055            2      2.53%    100.00% # Reads before turning the bus around for writes
system.mem_ctrls.rdPerTurnAround::total            79                       # Reads before turning the bus around for writes
system.mem_ctrls.wrPerTurnAround::samples           79                       # Writes before turning the bus around for reads
system.mem_ctrls.wrPerTurnAround::mean      16.443038                       # Writes before turning the bus around for reads
system.mem_ctrls.wrPerTurnAround::gmean     16.419944                       # Writes before turning the bus around for reads
system.mem_ctrls.wrPerTurnAround::stdev      0.902231                       # Writes before turning the bus around for reads
system.mem_ctrls.wrPerTurnAround::16               63     79.75%     79.75% # Writes before turning the bus around for reads
system.mem_ctrls.wrPerTurnAround::18               13     16.46%     96.20% # Writes before turning the bus around for reads
system.mem_ctrls.wrPerTurnAround::19                3      3.80%    100.00% # Writes before turning the bus around for reads
system.mem_ctrls.wrPerTurnAround::total            79                       # Writes before turning the bus around for reads
system.mem_ctrls.totQLat                   4777712750                       # Total ticks spent queuing
system.mem_ctrls.totMemAccLat             37417731500                       # Total ticks spent from burst creation until serviced by the DRAM
system.mem_ctrls.totBusLat                 8704005000                       # Total ticks spent in databus transfers
system.mem_ctrls.avgQLat                      2744.55                       # Average queueing delay per DRAM burst
system.mem_ctrls.avgBusLat                    5000.00                       # Average bus latency per DRAM burst
system.mem_ctrls.avgMemAccLat                21494.55                       # Average memory access latency per DRAM burst
system.mem_ctrls.avgRdBW                      1244.69                       # Average DRAM read bandwidth in MiByte/s
system.mem_ctrls.avgWrBW                         0.93                       # Average achieved write bandwidth in MiByte/s
system.mem_ctrls.avgRdBWSys                     74.49                       # Average system read bandwidth in MiByte/s
system.mem_ctrls.avgWrBWSys                      7.91                       # Average system write bandwidth in MiByte/s
system.mem_ctrls.peakBW                      12800.00                       # Theoretical peak bandwidth in MiByte/s
system.mem_ctrls.busUtil                         9.73                       # Data bus utilization in percentage
system.mem_ctrls.busUtilRead                     9.72                       # Data bus utilization in percentage for reads
system.mem_ctrls.busUtilWrite                    0.01                       # Data bus utilization in percentage for writes
system.mem_ctrls.avgRdQLen                       1.00                       # Average read queue length when enqueuing
system.mem_ctrls.avgWrQLen                      26.86                       # Average write queue length when enqueuing
system.mem_ctrls.readRowHits                  1602376                       # Number of row buffer hits during reads
system.mem_ctrls.writeRowHits                    1165                       # Number of row buffer hits during writes
system.mem_ctrls.readRowHitRate                 92.05                       # Row buffer hit rate for reads
system.mem_ctrls.writeRowHitRate                87.99                       # Row buffer hit rate for writes
system.mem_ctrls.avgGap                      44680.62                       # Average gap between requests
system.mem_ctrls.pageHitRate                    92.05                       # Row buffer hit rate, read and write combined
system.mem_ctrls_0.actEnergy                839999160                       # Energy for activate commands per rank (pJ)
system.mem_ctrls_0.preEnergy                458332875                       # Energy for precharge commands per rank (pJ)
system.mem_ctrls_0.readEnergy             11621594400                       # Energy for read commands per rank (pJ)
system.mem_ctrls_0.writeEnergy                3369600                       # Energy for write commands per rank (pJ)
system.mem_ctrls_0.refreshEnergy           5845897200                       # Energy for refresh commands per rank (pJ)
system.mem_ctrls_0.actBackEnergy          60150537630                       # Energy for active background per rank (pJ)
system.mem_ctrls_0.preBackEnergy            938292750                       # Energy for precharge background per rank (pJ)
system.mem_ctrls_0.totalEnergy            79858023615                       # Total energy per rank (pJ)
system.mem_ctrls_0.averagePower            892.236482                       # Core power per rank (mW)
system.mem_ctrls_0.memoryStateTime::IDLE    944611750                       # Time in different power states
system.mem_ctrls_0.memoryStateTime::REF    2988700000                       # Time in different power states
system.mem_ctrls_0.memoryStateTime::PRE_PDN            0                       # Time in different power states
system.mem_ctrls_0.memoryStateTime::ACT   85570018250                       # Time in different power states
system.mem_ctrls_0.memoryStateTime::ACT_PDN            0                       # Time in different power states
system.mem_ctrls_1.actEnergy                207423720                       # Energy for activate commands per rank (pJ)
system.mem_ctrls_1.preEnergy                113177625                       # Energy for precharge commands per rank (pJ)
system.mem_ctrls_1.readEnergy              1955678400                       # Energy for read commands per rank (pJ)
system.mem_ctrls_1.writeEnergy                5047920                       # Energy for write commands per rank (pJ)
system.mem_ctrls_1.refreshEnergy           5845897200                       # Energy for refresh commands per rank (pJ)
system.mem_ctrls_1.actBackEnergy          40707721350                       # Energy for active background per rank (pJ)
system.mem_ctrls_1.preBackEnergy          17993398500                       # Energy for precharge background per rank (pJ)
system.mem_ctrls_1.totalEnergy            66828344715                       # Total energy per rank (pJ)
system.mem_ctrls_1.averagePower            746.658636                       # Core power per rank (mW)
system.mem_ctrls_1.memoryStateTime::IDLE  29690898250                       # Time in different power states
system.mem_ctrls_1.memoryStateTime::REF    2988700000                       # Time in different power states
system.mem_ctrls_1.memoryStateTime::PRE_PDN            0                       # Time in different power states
system.mem_ctrls_1.memoryStateTime::ACT   56828571750                       # Time in different power states
system.mem_ctrls_1.memoryStateTime::ACT_PDN            0                       # Time in different power states
system.cpu_voltage_domain.voltage                   1                       # Voltage in Volts
system.cpu_clk_domain.clock                       500                       # Clock period in ticks
system.cpu.dstage2_mmu.stage2_tlb.walker.walks            0                       # Table walker walks requested
system.cpu.dstage2_mmu.stage2_tlb.walker.walkRequestOrigin_Requested::Data            0                       # Table walker requests started/completed, data/inst
system.cpu.dstage2_mmu.stage2_tlb.walker.walkRequestOrigin_Requested::Inst            0                       # Table walker requests started/completed, data/inst
system.cpu.dstage2_mmu.stage2_tlb.walker.walkRequestOrigin_Requested::total            0                       # Table walker requests started/completed, data/inst
system.cpu.dstage2_mmu.stage2_tlb.walker.walkRequestOrigin_Completed::Data            0                       # Table walker requests started/completed, data/inst
system.cpu.dstage2_mmu.stage2_tlb.walker.walkRequestOrigin_Completed::Inst            0                       # Table walker requests started/completed, data/inst
system.cpu.dstage2_mmu.stage2_tlb.walker.walkRequestOrigin_Completed::total            0                       # Table walker requests started/completed, data/inst
system.cpu.dstage2_mmu.stage2_tlb.walker.walkRequestOrigin::total            0                       # Table walker requests started/completed, data/inst
system.cpu.dstage2_mmu.stage2_tlb.inst_hits            0                       # ITB inst hits
system.cpu.dstage2_mmu.stage2_tlb.inst_misses            0                       # ITB inst misses
system.cpu.dstage2_mmu.stage2_tlb.read_hits            0                       # DTB read hits
system.cpu.dstage2_mmu.stage2_tlb.read_misses            0                       # DTB read misses
system.cpu.dstage2_mmu.stage2_tlb.write_hits            0                       # DTB write hits
system.cpu.dstage2_mmu.stage2_tlb.write_misses            0                       # DTB write misses
system.cpu.dstage2_mmu.stage2_tlb.flush_tlb            0                       # Number of times complete TLB was flushed
system.cpu.dstage2_mmu.stage2_tlb.flush_tlb_mva            0                       # Number of times TLB was flushed by MVA
system.cpu.dstage2_mmu.stage2_tlb.flush_tlb_mva_asid            0                       # Number of times TLB was flushed by MVA & ASID
system.cpu.dstage2_mmu.stage2_tlb.flush_tlb_asid            0                       # Number of times TLB was flushed by ASID
system.cpu.dstage2_mmu.stage2_tlb.flush_entries            0                       # Number of entries that have been flushed from TLB
system.cpu.dstage2_mmu.stage2_tlb.align_faults            0                       # Number of TLB faults due to alignment restrictions
system.cpu.dstage2_mmu.stage2_tlb.prefetch_faults            0                       # Number of TLB faults due to prefetch
system.cpu.dstage2_mmu.stage2_tlb.domain_faults            0                       # Number of TLB faults due to domain restrictions
system.cpu.dstage2_mmu.stage2_tlb.perms_faults            0                       # Number of TLB faults due to permissions restrictions
system.cpu.dstage2_mmu.stage2_tlb.read_accesses            0                       # DTB read accesses
system.cpu.dstage2_mmu.stage2_tlb.write_accesses            0                       # DTB write accesses
system.cpu.dstage2_mmu.stage2_tlb.inst_accesses            0                       # ITB inst accesses
system.cpu.dstage2_mmu.stage2_tlb.hits              0                       # DTB hits
system.cpu.dstage2_mmu.stage2_tlb.misses            0                       # DTB misses
system.cpu.dstage2_mmu.stage2_tlb.accesses            0                       # DTB accesses
system.cpu.dtb.walker.walks                         0                       # Table walker walks requested
system.cpu.dtb.walker.walkRequestOrigin_Requested::Data            0                       # Table walker requests started/completed, data/inst
system.cpu.dtb.walker.walkRequestOrigin_Requested::Inst            0                       # Table walker requests started/completed, data/inst
system.cpu.dtb.walker.walkRequestOrigin_Requested::total            0                       # Table walker requests started/completed, data/inst
system.cpu.dtb.walker.walkRequestOrigin_Completed::Data            0                       # Table walker requests started/completed, data/inst
system.cpu.dtb.walker.walkRequestOrigin_Completed::Inst            0                       # Table walker requests started/completed, data/inst
system.cpu.dtb.walker.walkRequestOrigin_Completed::total            0                       # Table walker requests started/completed, data/inst
system.cpu.dtb.walker.walkRequestOrigin::total            0                       # Table walker requests started/completed, data/inst
system.cpu.dtb.inst_hits                            0                       # ITB inst hits
system.cpu.dtb.inst_misses                          0                       # ITB inst misses
system.cpu.dtb.read_hits                            0                       # DTB read hits
system.cpu.dtb.read_misses                          0                       # DTB read misses
system.cpu.dtb.write_hits                           0                       # DTB write hits
system.cpu.dtb.write_misses                         0                       # DTB write misses
system.cpu.dtb.flush_tlb                            0                       # Number of times complete TLB was flushed
system.cpu.dtb.flush_tlb_mva                        0                       # Number of times TLB was flushed by MVA
system.cpu.dtb.flush_tlb_mva_asid                   0                       # Number of times TLB was flushed by MVA & ASID
system.cpu.dtb.flush_tlb_asid                       0                       # Number of times TLB was flushed by ASID
system.cpu.dtb.flush_entries                        0                       # Number of entries that have been flushed from TLB
system.cpu.dtb.align_faults                         0                       # Number of TLB faults due to alignment restrictions
system.cpu.dtb.prefetch_faults                      0                       # Number of TLB faults due to prefetch
system.cpu.dtb.domain_faults                        0                       # Number of TLB faults due to domain restrictions
system.cpu.dtb.perms_faults                         0                       # Number of TLB faults due to permissions restrictions
system.cpu.dtb.read_accesses                        0                       # DTB read accesses
system.cpu.dtb.write_accesses                       0                       # DTB write accesses
system.cpu.dtb.inst_accesses                        0                       # ITB inst accesses
system.cpu.dtb.hits                                 0                       # DTB hits
system.cpu.dtb.misses                               0                       # DTB misses
system.cpu.dtb.accesses                             0                       # DTB accesses
system.cpu.istage2_mmu.stage2_tlb.walker.walks            0                       # Table walker walks requested
system.cpu.istage2_mmu.stage2_tlb.walker.walkRequestOrigin_Requested::Data            0                       # Table walker requests started/completed, data/inst
system.cpu.istage2_mmu.stage2_tlb.walker.walkRequestOrigin_Requested::Inst            0                       # Table walker requests started/completed, data/inst
system.cpu.istage2_mmu.stage2_tlb.walker.walkRequestOrigin_Requested::total            0                       # Table walker requests started/completed, data/inst
system.cpu.istage2_mmu.stage2_tlb.walker.walkRequestOrigin_Completed::Data            0                       # Table walker requests started/completed, data/inst
system.cpu.istage2_mmu.stage2_tlb.walker.walkRequestOrigin_Completed::Inst            0                       # Table walker requests started/completed, data/inst
system.cpu.istage2_mmu.stage2_tlb.walker.walkRequestOrigin_Completed::total            0                       # Table walker requests started/completed, data/inst
system.cpu.istage2_mmu.stage2_tlb.walker.walkRequestOrigin::total            0                       # Table walker requests started/completed, data/inst
system.cpu.istage2_mmu.stage2_tlb.inst_hits            0                       # ITB inst hits
system.cpu.istage2_mmu.stage2_tlb.inst_misses            0                       # ITB inst misses
system.cpu.istage2_mmu.stage2_tlb.read_hits            0                       # DTB read hits
system.cpu.istage2_mmu.stage2_tlb.read_misses            0                       # DTB read misses
system.cpu.istage2_mmu.stage2_tlb.write_hits            0                       # DTB write hits
system.cpu.istage2_mmu.stage2_tlb.write_misses            0                       # DTB write misses
system.cpu.istage2_mmu.stage2_tlb.flush_tlb            0                       # Number of times complete TLB was flushed
system.cpu.istage2_mmu.stage2_tlb.flush_tlb_mva            0                       # Number of times TLB was flushed by MVA
system.cpu.istage2_mmu.stage2_tlb.flush_tlb_mva_asid            0                       # Number of times TLB was flushed by MVA & ASID
system.cpu.istage2_mmu.stage2_tlb.flush_tlb_asid            0                       # Number of times TLB was flushed by ASID
system.cpu.istage2_mmu.stage2_tlb.flush_entries            0                       # Number of entries that have been flushed from TLB
system.cpu.istage2_mmu.stage2_tlb.align_faults            0                       # Number of TLB faults due to alignment restrictions
system.cpu.istage2_mmu.stage2_tlb.prefetch_faults            0                       # Number of TLB faults due to prefetch
system.cpu.istage2_mmu.stage2_tlb.domain_faults            0                       # Number of TLB faults due to domain restrictions
system.cpu.istage2_mmu.stage2_tlb.perms_faults            0                       # Number of TLB faults due to permissions restrictions
system.cpu.istage2_mmu.stage2_tlb.read_accesses            0                       # DTB read accesses
system.cpu.istage2_mmu.stage2_tlb.write_accesses            0                       # DTB write accesses
system.cpu.istage2_mmu.stage2_tlb.inst_accesses            0                       # ITB inst accesses
system.cpu.istage2_mmu.stage2_tlb.hits              0                       # DTB hits
system.cpu.istage2_mmu.stage2_tlb.misses            0                       # DTB misses
system.cpu.istage2_mmu.stage2_tlb.accesses            0                       # DTB accesses
system.cpu.itb.walker.walks                         0                       # Table walker walks requested
system.cpu.itb.walker.walkRequestOrigin_Requested::Data            0                       # Table walker requests started/completed, data/inst
system.cpu.itb.walker.walkRequestOrigin_Requested::Inst            0                       # Table walker requests started/completed, data/inst
system.cpu.itb.walker.walkRequestOrigin_Requested::total            0                       # Table walker requests started/completed, data/inst
system.cpu.itb.walker.walkRequestOrigin_Completed::Data            0                       # Table walker requests started/completed, data/inst
system.cpu.itb.walker.walkRequestOrigin_Completed::Inst            0                       # Table walker requests started/completed, data/inst
system.cpu.itb.walker.walkRequestOrigin_Completed::total            0                       # Table walker requests started/completed, data/inst
system.cpu.itb.walker.walkRequestOrigin::total            0                       # Table walker requests started/completed, data/inst
system.cpu.itb.inst_hits                            0                       # ITB inst hits
system.cpu.itb.inst_misses                          0                       # ITB inst misses
system.cpu.itb.read_hits                            0                       # DTB read hits
system.cpu.itb.read_misses                          0                       # DTB read misses
system.cpu.itb.write_hits                           0                       # DTB write hits
system.cpu.itb.write_misses                         0                       # DTB write misses
system.cpu.itb.flush_tlb                            0                       # Number of times complete TLB was flushed
system.cpu.itb.flush_tlb_mva                        0                       # Number of times TLB was flushed by MVA
system.cpu.itb.flush_tlb_mva_asid                   0                       # Number of times TLB was flushed by MVA & ASID
system.cpu.itb.flush_tlb_asid                       0                       # Number of times TLB was flushed by ASID
system.cpu.itb.flush_entries                        0                       # Number of entries that have been flushed from TLB
system.cpu.itb.align_faults                         0                       # Number of TLB faults due to alignment restrictions
system.cpu.itb.prefetch_faults                      0                       # Number of TLB faults due to prefetch
system.cpu.itb.domain_faults                        0                       # Number of TLB faults due to domain restrictions
system.cpu.itb.perms_faults                         0                       # Number of TLB faults due to permissions restrictions
system.cpu.itb.read_accesses                        0                       # DTB read accesses
system.cpu.itb.write_accesses                       0                       # DTB write accesses
system.cpu.itb.inst_accesses                        0                       # ITB inst accesses
system.cpu.itb.hits                                 0                       # DTB hits
system.cpu.itb.misses                               0                       # DTB misses
system.cpu.itb.accesses                             0                       # DTB accesses
system.cpu.workload.num_syscalls                   17                       # Number of system calls
system.cpu.numCycles                        179018590                       # number of cpu cycles simulated
system.cpu.numWorkItemsStarted                      0                       # number of work items this cpu started
system.cpu.numWorkItemsCompleted                    0                       # number of work items this cpu completed
system.cpu.committedInsts                     1465741                       # Number of instructions committed
system.cpu.committedOps                       1582845                       # Number of ops (including micro ops) committed
system.cpu.num_int_alu_accesses               1485528                       # Number of integer alu accesses
system.cpu.num_fp_alu_accesses                     16                       # Number of float alu accesses
system.cpu.num_func_calls                       45068                       # number of times a function call or return occured
system.cpu.num_conditional_control_insts       107090                       # number of instructions that are conditional controls
system.cpu.num_int_insts                      1485528                       # number of integer instructions
system.cpu.num_fp_insts                            16                       # number of float instructions
system.cpu.num_int_register_reads             2635179                       # number of times the integer registers were read
system.cpu.num_int_register_writes            1140442                       # number of times the integer registers were written
system.cpu.num_fp_register_reads                   16                       # number of times the floating registers were read
system.cpu.num_fp_register_writes                   0                       # number of times the floating registers were written
system.cpu.num_cc_register_reads              5838336                       # number of times the CC registers were read
system.cpu.num_cc_register_writes              508175                       # number of times the CC registers were written
system.cpu.num_mem_refs                        540902                       # number of memory refs
system.cpu.num_load_insts                      362837                       # Number of load instructions
system.cpu.num_store_insts                     178065                       # Number of store instructions
system.cpu.num_idle_cycles                   0.002000                       # Number of idle cycles
system.cpu.num_busy_cycles               179018589.998000                       # Number of busy cycles
system.cpu.not_idle_fraction                 1.000000                       # Percentage of non-idle cycles
system.cpu.idle_fraction                     0.000000                       # Percentage of idle cycles
system.cpu.Branches                            150471                       # Number of branches fetched
system.cpu.op_class::No_OpClass                     0      0.00%      0.00% # Class of executed instruction
system.cpu.op_class::IntAlu                   1035541     65.22%     65.22% # Class of executed instruction
system.cpu.op_class::IntMult                    10862      0.68%     65.90% # Class of executed instruction
system.cpu.op_class::IntDiv                         0      0.00%     65.90% # Class of executed instruction
system.cpu.op_class::FloatAdd                       0      0.00%     65.90% # Class of executed instruction
system.cpu.op_class::FloatCmp                       0      0.00%     65.90% # Class of executed instruction
system.cpu.op_class::FloatCvt                       0      0.00%     65.90% # Class of executed instruction
system.cpu.op_class::FloatMult                      0      0.00%     65.90% # Class of executed instruction
system.cpu.op_class::FloatDiv                       0      0.00%     65.90% # Class of executed instruction
system.cpu.op_class::FloatSqrt                      0      0.00%     65.90% # Class of executed instruction
system.cpu.op_class::SimdAdd                        0      0.00%     65.90% # Class of executed instruction
system.cpu.op_class::SimdAddAcc                     0      0.00%     65.90% # Class of executed instruction
system.cpu.op_class::SimdAlu                        0      0.00%     65.90% # Class of executed instruction
system.cpu.op_class::SimdCmp                        0      0.00%     65.90% # Class of executed instruction
system.cpu.op_class::SimdCvt                        0      0.00%     65.90% # Class of executed instruction
system.cpu.op_class::SimdMisc                       0      0.00%     65.90% # Class of executed instruction
system.cpu.op_class::SimdMult                       0      0.00%     65.90% # Class of executed instruction
system.cpu.op_class::SimdMultAcc                    0      0.00%     65.90% # Class of executed instruction
system.cpu.op_class::SimdShift                      0      0.00%     65.90% # Class of executed instruction
system.cpu.op_class::SimdShiftAcc                   0      0.00%     65.90% # Class of executed instruction
system.cpu.op_class::SimdSqrt                       0      0.00%     65.90% # Class of executed instruction
system.cpu.op_class::SimdFloatAdd                   0      0.00%     65.90% # Class of executed instruction
system.cpu.op_class::SimdFloatAlu                   0      0.00%     65.90% # Class of executed instruction
system.cpu.op_class::SimdFloatCmp                   0      0.00%     65.90% # Class of executed instruction
system.cpu.op_class::SimdFloatCvt                   0      0.00%     65.90% # Class of executed instruction
system.cpu.op_class::SimdFloatDiv                   0      0.00%     65.90% # Class of executed instruction
system.cpu.op_class::SimdFloatMisc                513      0.03%     65.93% # Class of executed instruction
system.cpu.op_class::SimdFloatMult                  0      0.00%     65.93% # Class of executed instruction
system.cpu.op_class::SimdFloatMultAcc               0      0.00%     65.93% # Class of executed instruction
system.cpu.op_class::SimdFloatSqrt                  0      0.00%     65.93% # Class of executed instruction
system.cpu.op_class::MemRead                   362837     22.85%     88.79% # Class of executed instruction
system.cpu.op_class::MemWrite                  178065     11.21%    100.00% # Class of executed instruction
system.cpu.op_class::IprAccess                      0      0.00%    100.00% # Class of executed instruction
system.cpu.op_class::InstPrefetch                   0      0.00%    100.00% # Class of executed instruction
system.cpu.op_class::total                    1587818                       # Class of executed instruction
system.membus.trans_dist::ReadReq             1825287                       # Transaction distribution
system.membus.trans_dist::ReadResp            1825387                       # Transaction distribution
system.membus.trans_dist::WriteReq             177823                       # Transaction distribution
system.membus.trans_dist::WriteResp            177823                       # Transaction distribution
system.membus.trans_dist::LoadLockedReq           101                       # Transaction distribution
system.membus.trans_dist::StoreCondReq            101                       # Transaction distribution
system.membus.trans_dist::StoreCondResp           101                       # Transaction distribution
system.membus.pkt_count_system.cpu.icache_port::system.mem_ctrls.port      2932643                       # Packet count per connected master and slave (bytes)
system.membus.pkt_count_system.cpu.dcache_port::system.mem_ctrls.port      1073980                       # Packet count per connected master and slave (bytes)
system.membus.pkt_count::total                4006623                       # Packet count per connected master and slave (bytes)
system.membus.pkt_size_system.cpu.icache_port::system.mem_ctrls.port      5865284                       # Cumulative packet size per connected master and slave (bytes)
system.membus.pkt_size_system.cpu.dcache_port::system.mem_ctrls.port      1510259                       # Cumulative packet size per connected master and slave (bytes)
system.membus.pkt_size::total                 7375543                       # Cumulative packet size per connected master and slave (bytes)
system.membus.snoops                                0                       # Total snoops (count)
system.membus.snoop_fanout::samples           2003312                       # Request fanout histogram
system.membus.snoop_fanout::mean             0.731949                       # Request fanout histogram
system.membus.snoop_fanout::stdev            0.442944                       # Request fanout histogram
system.membus.snoop_fanout::underflows              0      0.00%      0.00% # Request fanout histogram
system.membus.snoop_fanout::0                  536990     26.81%     26.81% # Request fanout histogram
system.membus.snoop_fanout::1                 1466322     73.19%    100.00% # Request fanout histogram
system.membus.snoop_fanout::overflows               0      0.00%    100.00% # Request fanout histogram
system.membus.snoop_fanout::min_value               0                       # Request fanout histogram
system.membus.snoop_fanout::max_value               1                       # Request fanout histogram
system.membus.snoop_fanout::total             2003312                       # Request fanout histogram
system.membus.reqLayer0.occupancy          2247364000                       # Layer occupancy (ticks)
system.membus.reqLayer0.utilization               2.5                       # Layer utilization (%)
system.membus.respLayer1.occupancy         3323749000                       # Layer occupancy (ticks)
system.membus.respLayer1.utilization              3.7                       # Layer utilization (%)
system.membus.respLayer2.occupancy          973574250                       # Layer occupancy (ticks)
system.membus.respLayer2.utilization              1.1                       # Layer utilization (%)

---------- End Simulation Statistics   ----------
